FoamFile
{
    version     2.0;
    format      ascii;
    class       volScalarField;
    object      p;
}

dimensions      [1 -1 -2 0 0 0 0];
internalField   uniform 12000;

boundaryField
{
    inlet { type fixedValue; value uniform 12000; }
    outlet { type zeroGradient; }
    walls { type zeroGradient; }
    frontAndBack { type empty; }
}
