FoamFile
{
    version     2.0;
    format      ascii;
    class       volScalarField;
    object      T;
}

dimensions      [0 0 0 1 0 0 0];
internalField   uniform 220;

boundaryField
{
    inlet { type fixedValue; value uniform 220; }
    outlet { type zeroGradient; }
    walls { type zeroGradient; }
    frontAndBack { type empty; }
}
