FoamFile
{
    version     2.0;
    format      ascii;
    class       dictionary;
    object      fvSchemes;
}

ddtSchemes
{
    default     Euler;
}

gradSchemes
{
    default     Gauss linear;
}

divSchemes
{
    default         none;
    div(phi,U)      Gauss limitedLinearV 1;
    div(phi,e)      Gauss limitedLinear 1;
    div(phi,K)      Gauss limitedLinear 1;
    div(phid,p)     Gauss limitedLinear 1;
}

laplacianSchemes
{
    default     Gauss linear corrected;
}

interpolationSchemes
{
    default     linear;
}

snGradSchemes
{
    default     corrected;
}
